"""
References:

A shock tube, rapid compression machine, and kinetic modeling study of the autoignition of 3-methylheptane
W. Wang, Z. Li, M.A. Oehlschlaeger, D. Healy, H.J. Curran, S.M. Sarathy, W.J. Pitz, M. Mehl, C.K. Westbrook
 Proc. Combust. Inst. Jan 2012.  http://dx.doi.org/ 10.1016/j.proci.2012.06.001
RPI, NUIG, and LLNL

Built on top of

S.M. Sarathy, M. Mehl, C. K. Westbrook, W. J. Pitz,C. Togbe, P. Dagaut, H. Wang, M.A. Oehlschlaeger, U. Niemann, K. Seshadri,P.S. Veloo, C. Ji, F.N. Egolfopoulos, T. Lu
Comprehensive chemical kinetic modeling of the oxidation of 2-methylalkanes from C7 to C20
 Combustion and Flame 2011

 Mani-ver1.6.1

Detailed low T and high T mech for species up to C8
References:

A shock tube, rapid compression machine, and kinetic modeling study of the autoignition of 3-methylheptane
W. Wang, Z. Li, M.A. Oehlschlaeger, D. Healy, H.J. Curran, S.M. Sarathy, W.J. Pitz, M. Mehl, C.K. Westbrook
 Proc. Combust. Inst. Jan 2012.  http://dx.doi.org/ 10.1016/j.proci.2012.06.001
RPI, NUIG, and LLNL



Built on top of
S.M. Sarathy, M. Mehl, C. K. Westbrook, W. J. Pitz,C. Togbe, P. Dagaut, H. Wang, M.A. Oehlschlaeger, U. Niemann, K. Seshadri,P.S. Veloo, C. Ji, F.N. Egolfopoulos, T. Lu
Comprehensive chemical kinetic modeling of the oxidation of 2-methylalkanes from C7 to C20
 Combustion and Flame 2011

 Mani-ver1.6
"""

#########################################################
##  Reaction 1769-1770  has been replaced with AutoTST 2.0  ##
##  Rxn String: CCC(C)=O+C[CH2]_CC+C[CH]C(C)=O              ##
#########################################################
units(length='cm', time='s', quantity='mol', act_energy='cal/mol')

ideal_gas(name='gas',
          elements="C H N O Ar He",
          species="""oh*             h               h2
                     o               o2              oh
                     h2o             n2              ho2
                     h2o2            ar              co
                     co2             ch2o            hco
                     ho2cho          o2cho           hocho
                     ocho            hoch2o2h        hoch2o2
                     och2o2h         hoch2o          ch3oh
                     ch2oh           ch3o            ch3o2h
                     ch3o2           ch4             ch3
                     ch2             ch2(s)          c
                     ch              c2h6            c2h5
                     c2h4            c2h3            c2h2
                     c2h             ch3cho          ch3co
                     ch2cho          ch2co           hcco
                     hccoh           ch3co3h         ch3co3
                     ch3co2          c2h5oh          c2h5o
                     pc2h4oh         sc2h4oh         o2c2h4oh
                     c2h5o2h         c2h5o2          c2h4o2h
                     c2h4o1-2        c2h3o1-2        ch3coch3
                     ch3coch2        ch3coch2o2      ch3coch2o2h
                     ch3coch2o       c2h3cho         c2h3co
                     c2h5cho         c2h5co          ch3och3
                     ch3och2         ch3och2o2       ch2och2o2h
                     ch3och2o2h      ch3och2o        o2ch2och2o2h
                     ho2ch2ocho      och2ocho        hoch2oco
                     ch3ocho         ch3oco          ch2ocho
                     he              c3h8            ic3h7
                     nc3h7           c3h6            c3h5-a
                     c3h5-s          c3h5-t          c3h4-p
                     c3h4-a          c3h3            c3h2
                     c3h5o           c3h6ooh1-2      c3h6ooh1-3
                     c3h6ooh2-1      c3h6ooh1-2o2    c3h6ooh1-3o2
                     c3h6ooh2-1o2    c3h6ooh2-2      nc3h7o2h
                     ic3h7o2h        nc3h7o2         ic3h7o2
                     nc3h7o          ic3h7o          c3h6o1-2
                     c3h6o1-3        c3ket12         c3ket13
                     c3ket21         c3h51-2,3ooh    c3h52-1,3ooh
                     c3h6oh          hoc3h6o2        ch3chco
                     ac3h5ooh        c2h3ooh         c4h10
                     c4h8-1          c4h8-2          pc4h9
                     sc4h9           c4h71-1         c4h71-2
                     c4h71-3         c4h71-4         c4h72-2
                     c4h6            pc4h9o2h        sc4h9o2h
                     pc4h9o2         sc4h9o2         pc4h9o
                     sc4h9o          c4h7o           c4h8o1-2
                     c4h8o1-3        c4h8o1-4        c4h8o2-3
                     pc4h8oh         sc4h8oh         c4h8oh-1o2
                     c4h8oh-2o2      c4h8ooh1-1      c4h8ooh1-2
                     c4h8ooh1-3      c4h8ooh1-4      c4h8ooh2-1
                     c4h8ooh2-2      c4h8ooh2-3      c4h8ooh2-4
                     c4h8ooh1-2o2    c4h8ooh1-3o2    c4h8ooh1-4o2
                     c4h8ooh2-1o2    c4h8ooh2-3o2    c4h8ooh2-4o2
                     nc4ket12        nc4ket13        nc4ket14
                     nc4ket21        nc4ket23        nc4ket24
                     c2h5coch3       c2h5coch2       ch2ch2coch3
                     ch3chcoch3      c2h3coch3       ch3choococh3
                     ch2choohcoch3   nc3h7cho        nc3h7co
                     c3h6cho-1       c3h6cho-2       c3h6cho-3
                     c2h5chco        sc3h5cho        sc3h5co
                     ch2ch2cho       ic4h10          ic4h9
                     tc4h9           ic4h8           ic4h7
                     tc4h9o2         ic4h9o2         tc4h8o2h-i
                     ic4h8o2h-i      ic4h8o2h-t      ic4h8o
                     cc4h8o          ic4h9o          tc4h9o
                     ic4h9o2h        tc4h9o2h        ic4h7o
                     ic4h8oh         io2c4h8oh       ic3h7cho
                     tc3h6cho        ic3h7co         ic3h6cho
                     tc4h8ooh-io2    ic4h8ooh-io2    ic4h8ooh-to2
                     ic4ketii        ic4ketit        ic4h7oh
                     ic4h6oh         ic3h5cho        ic3h5co
                     tc3h6ocho       ic3h6co         ic4h7ooh
                     tc3h6ohcho      tc3h6oh         ic3h5oh
                     tc3h6o2cho      tc3h6o2hco      ic3h5o2hcho
                     ch2cch2oh       tc4h8cho        o2c4h8cho
                     o2hc4h8co       c3h5oh          tic4h7q2-i
                     iic4h7q2-t      iic4h7q2-i      ch2o2h
                     nc5h12          c5h11-1         c5h11-2
                     c5h11-3         c5h10-1         c5h10-2
                     c5h81-3         c5h91-3         c5h91-4
                     c5h91-5         c5h92-4         c5h92-5
                     c5h9o1-3        c5h9o2-4        c5h11o2h-1
                     c5h11o2h-2      c5h11o2h-3      c5h11o2-1
                     c5h11o2-2       c5h11o2-3       c5h11o-1
                     c5h11o-2        c5h11o-3        c5h10ooh1-2
                     c5h10ooh1-3     c5h10ooh1-4     c5h10ooh1-5
                     c5h10ooh2-1     c5h10ooh2-3     c5h10ooh2-4
                     c5h10ooh2-5     c5h10ooh3-2     c5h10ooh3-1
                     c5h10o1-2       c5h10o1-3       c5h10o1-4
                     c5h10o1-5       c5h10o2-3       c5h10o2-4
                     c5h10ooh1-2o2   c5h10ooh1-3o2   c5h10ooh1-4o2
                     c5h10ooh1-5o2   c5h10ooh2-1o2   c5h10ooh2-3o2
                     c5h10ooh2-4o2   c5h10ooh2-5o2   c5h10ooh3-1o2
                     c5h10ooh3-2o2   nc5ket12        nc5ket13
                     nc5ket14        nc5ket15        nc5ket21
                     nc5ket23        nc5ket24        nc5ket25
                     nc5ket31        nc5ket32        c5h10oh-1
                     c5h10oh-2       o2c5h10oh-1     o2c5h10oh-2
                     nc6h14          c6h13-1         c6h13-2
                     c6h13-3         c6h12-1         c6h12-2
                     c6h12-3         c6h111-3        c6h111-4
                     c6h111-5        c6h111-6        c6h112-4
                     c6h112-5        c6h112-6        c6h113-1
                     c6h11o1-3       c6h11o2-4       c6h12o1-2
                     c6h12o1-3       c6h12o1-4       c6h12o1-5
                     c6h12o2-3       c6h12o2-4       c6h12o2-5
                     c6h12o3-4       c6h13o2h-1      c6h13o2h-2
                     c6h13o2h-3      c6h13o2-1       c6h13o2-2
                     c6h13o2-3       c6h12ooh1-2     c6h12ooh1-3
                     c6h12ooh1-4     c6h12ooh1-5     c6h12ooh2-1
                     c6h12ooh2-3     c6h12ooh2-4     c6h12ooh2-5
                     c6h12ooh2-6     c6h12ooh3-1     c6h12ooh3-2
                     c6h12ooh3-4     c6h12ooh3-5     c6h12ooh3-6
                     c6h12ooh1-2o2   c6h12ooh1-3o2   c6h12ooh1-4o2
                     c6h12ooh1-5o2   c6h12ooh2-1o2   c6h12ooh2-3o2
                     c6h12ooh2-4o2   c6h12ooh2-5o2   c6h12ooh2-6o2
                     c6h12ooh3-1o2   c6h12ooh3-2o2   c6h12ooh3-4o2
                     c6h12ooh3-5o2   c6h12ooh3-6o2   nc6ket12
                     nc6ket13        nc6ket14        nc6ket15
                     nc6ket21        nc6ket23        nc6ket24
                     nc6ket25        nc6ket26        nc6ket31
                     nc6ket32        nc6ket34        nc6ket35
                     nc6ket36        c6h13o-1        c6h13o-2
                     c6h13o-3        c6h12oh-1       c6h12oh-2
                     c6h12oh-3       o2c6h12oh-1     o2c6h12oh-2
                     o2c6h12oh-3     nc4h9cho        nc4h9co
                     c4h8cho-1       c4h8cho-2       c4h8cho-3
                     c4h8cho-4       ac3h5cho        ac3h5co
                     c2h3chcho       nc3h7coch3      nc3h7coch2
                     c3h6coch3-1     c3h6coch3-2     c3h6coch3-3
                     c2h5coc2h5      c2h5coc2h4p     c2h5coc2h4s
                     c2h5coc2h3      pc2h4coc2h3     sc2h4coc2h3
                     nc7h16          c7h15-1         c7h15-2
                     c7h15-3         c7h15-4         c7h14-1
                     c7h14-2         c7h14-3         c7h131-3
                     c7h131-4        c7h131-5        c7h131-6
                     c7h131-7        c7h132-4        c7h132-5
                     c7h132-6        c7h132-7        c7h133-1
                     c7h133-5        c7h133-6        c7h133-7
                     c7h13o1-3       c7h13o2-4       c7h13o3-5
                     c7h15o2-1       c7h15o2-2       c7h15o2-3
                     c7h15o2-4       c7h15o2h-1      c7h15o2h-2
                     c7h15o2h-3      c7h15o2h-4      c7h15o-1
                     c7h15o-2        c7h15o-3        c7h15o-4
                     c7h14ooh1-2     c7h14ooh1-3     c7h14ooh1-4
                     c7h14ooh1-5     c7h14ooh2-1     c7h14ooh2-3
                     c7h14ooh2-4     c7h14ooh2-5     c7h14ooh2-6
                     c7h14ooh3-1     c7h14ooh3-2     c7h14ooh3-4
                     c7h14ooh3-5     c7h14ooh3-6     c7h14ooh3-7
                     c7h14ooh4-1     c7h14ooh4-2     c7h14ooh4-3
                     c7h14ooh1-2o2   c7h14ooh1-3o2   c7h14ooh1-4o2
                     c7h14ooh1-5o2   c7h14ooh2-1o2   c7h14ooh2-3o2
                     c7h14ooh2-4o2   c7h14ooh2-5o2   c7h14ooh2-6o2
                     c7h14ooh3-1o2   c7h14ooh3-2o2   c7h14ooh3-4o2
                     c7h14ooh3-5o2   c7h14ooh3-6o2   c7h14ooh3-7o2
                     c7h14ooh4-1o2   c7h14ooh4-2o2   c7h14ooh4-3o2
                     c7h14o1-2       c7h14o1-3       c7h14o1-4
                     c7h14o1-5       c7h14o2-3       c7h14o2-4
                     c7h14o2-5       c7h14o2-6       c7h14o3-4
                     c7h14o3-5       nc7ket12        nc7ket13
                     nc7ket14        nc7ket15        nc7ket21
                     nc7ket23        nc7ket24        nc7ket25
                     nc7ket26        nc7ket31        nc7ket32
                     nc7ket34        nc7ket35        nc7ket36
                     nc7ket37        nc7ket41        nc7ket42
                     nc7ket43        c7h14oh-1       c7h14oh-2
                     c7h14oh-3       o2c7h14oh-1     o2c7h14oh-2
                     o2c7h14oh-3     nc5h11cho       nc5h11co
                     c5h10cho-1      c5h10cho-2      c5h10cho-3
                     c5h10cho-4      c5h10cho-5      c4h7cho1-4
                     c4h7co1-4       c4h6cho1-43     c4h6cho1-44
                     nc4h9coch3      nc4h9coch2      c4h8coch3-1
                     c4h8coch3-2     c4h8coch3-3     c4h8coch3-4
                     c4h7ooh1-4      c4h7o1-4        c5h9ooh1-4
                     c5h9o1-4        c5h9ooh1-5      c5h9o1-5
                     c6h11ooh1-4     c6h11o1-4       c6h11ooh1-5
                     c6h11o1-5       c5h91-1         c4h7cho1-1
                     c4h7co1-1       c4h6cho1-14     c4h6cho1-13
                     nc3h7coc2h5     c3h6coc2h5-1    c3h6coc2h5-2
                     c3h6coc2h5-3    nc3h7coc2h4p    nc3h7coc2h4s
                     chchcho         c6h101-3        c6h101-4
                     c6h101-5        c6h102-4        etes1
                     mvox            vthf            edhf
                     etc6            kes1            c6h111o2h-3
                     c6h111o2h-4     c6h111o2h-5     c6h111o2h-6
                     c6h112o2h-4     c6h112o2h-5     c6h112o2h-6
                     c6h113o2h-2     c6h113o2h-1     nc6d1ket34
                     nc6d1ket35      nc6d1ket36      nc6d1ket43
                     nc6d1ket45      nc6d1ket46      nc6d1ket53
                     nc6d1ket54      nc6d1ket56      nc6d1ket63
                     nc6d1ket64      nc6d1ket65      nc6d2ket45
                     nc6d2ket46      nc6d2ket54      nc6d2ket56
                     nc6d2ket64      nc6d2ket65      nc6d3ket12
                     nc6d3ket21      c6h112o2-1      c6h111o2-3
                     c6h111o2-4      c6h111o2-5      c6h111o2-6
                     c6h112o2-4      c6h112o2-5      c6h112o2-6
                     c6h113o2-1      c6h113o2-2      c6h101ooh3-4
                     c6h101ooh3-5    c6h101ooh3-6    c6h101ooh4-3
                     c6h101ooh4-5    c6h101ooh4-6    c6h101ooh5-3
                     c6h101ooh5-4    c6h101ooh5-6    c6h101ooh6-3
                     c6h101ooh6-4    c6h101ooh6-5    c6h101ooh3-4o2
                     c6h101ooh3-5o2  c6h101ooh3-6o2  c6h101ooh4-3o2
                     c6h101ooh4-5o2  c6h101ooh4-6o2  c6h101ooh5-3o2
                     c6h101ooh5-4o2  c6h101ooh5-6o2  c6h101ooh6-3o2
                     c6h101ooh6-4o2  c6h101ooh6-5o2  c6h102ooh5-4
                     c6h103ooh1-2    c6h102ooh4-5    c6h102ooh4-6
                     c6h102ooh5-6    c6h102ooh6-4    c6h102ooh6-5
                     c6h103ooh2-1    c6h102ooh4-5o2  c6h102ooh4-6o2
                     c6h102ooh5-4o2  c6h102ooh5-6o2  c6h102ooh6-4o2
                     c6h102ooh6-5o2  c6h103ooh2-1o2  c6h103ooh1-2o2
                     c2h3coc3h7      c5h81-4         c5h91o2-3
                     c5h91o2-4       c5h91o2-5       c5h81ooh3-4
                     c5h81ooh3-5     c5h81ooh4-3     c5h81ooh4-5
                     c5h81ooh5-4     c5h81ooh5-3     c5h92o2-1
                     c5h81ooh3-4o2   c5h81ooh3-5o2   c5h81ooh4-3o2
                     c5h81ooh4-5o2   c5h81ooh5-3o2   c5h81ooh5-4o2
                     nc5d1ket34      nc5d1ket35      nc5d1ket43
                     nc5d1ket45      nc5d1ket53      nc5d1ket54
                     cy3c5h8o        ic6keteb        ic5ketdb
                     ic6ketec        ic5ketab        nc8h18
                     c8h17-1         c8h17-2         c8h17-3
                     c8h17-4         c8h16-1         c8h16-2
                     c8h16-3         c8h16-4         c8h17o-1
                     c8h17o-2        c8h17o-3        c8h17o-4
                     c8h17o2-1       c8h17o2-2       c8h17o2-3
                     c8h17o2-4       c8h17o2h-1      c8h17o2h-2
                     c8h17o2h-3      c8h17o2h-4      c8ooh1-2
                     c8ooh1-3        c8ooh1-4        c8ooh1-5
                     c8ooh2-1        c8ooh2-3        c8ooh2-4
                     c8ooh2-5        c8ooh2-6        c8ooh3-1
                     c8ooh3-2        c8ooh3-4        c8ooh3-5
                     c8ooh3-6        c8ooh3-7        c8ooh4-1
                     c8ooh4-2        c8ooh4-3        c8ooh4-5
                     c8ooh4-6        c8ooh4-7        c8ooh4-8
                     c8ooh1-2o2      c8ooh1-3o2      c8ooh1-4o2
                     c8ooh1-5o2      c8ooh2-1o2      c8ooh2-3o2
                     c8ooh2-4o2      c8ooh2-5o2      c8ooh2-6o2
                     c8ooh3-1o2      c8ooh3-2o2      c8ooh3-4o2
                     c8ooh3-5o2      c8ooh3-6o2      c8ooh3-7o2
                     c8ooh4-1o2      c8ooh4-2o2      c8ooh4-3o2
                     c8ooh4-5o2      c8ooh4-6o2      c8ooh4-7o2
                     c8ooh4-8o2      c8o1-2          c8o1-3
                     c8o1-4          c8o1-5          c8o2-3
                     c8o2-4          c8o2-5          c8o2-6
                     c8o3-4          c8o3-5          c8o3-6
                     c8o4-5          c8ket1-2        c8ket1-3
                     c8ket1-4        c8ket1-5        c8ket2-1
                     c8ket2-3        c8ket2-4        c8ket2-5
                     c8ket2-6        c8ket3-1        c8ket3-2
                     c8ket3-4        c8ket3-5        c8ket3-6
                     c8ket3-7        c8ket4-1        c8ket4-2
                     c8ket4-3        c8ket4-5        c8ket4-6
                     c8ket4-7        c8ket4-8        c8h17coch2
                     c7h15coch2      c6h13coch2      c5h11coch2
                     c8coc2h4p       c7coc2h4p       c6coc2h4p
                     c5coc2h4p       c4coc2h4p       c8coc3h6p
                     c7coc3h6p       c6coc3h6p       c5coc3h6p
                     c4coc3h6p       c3coc3h6p       nc3h7coc2h3
                     nc4h9coc2h3     c5h11coc2h3     c6h13coc2h3
                     nc3h7chco       nc4h9chco       c5h11chco
                     c6h13chco       c7h15chco       nc8h17cho
                     nc7h15cho       nc6h13cho       nc8h17co
                     nc7h15co        nc6h13co        c4h8cho4-2
                     ic8h17cho       ic7h15cho       ic6h13cho
                     ic5h11cho       ic4h9cho        ic8h17co
                     ic7h15co        ic6h13co        ic5h11co
                     ic4h9co         nc8h17coch2     nc7h15coch2
                     nc6h13coch2     nc5h11coch2     ic8h17coch2
                     ic7h15coch2     ic6h13coch2     ic5h11coch2
                     ic4h9coch2      ic3h7coch2      nc8h17coc2h4p
                     nc7h15coc2h4p   nc6h13coc2h4p   nc5h11coc2h4p
                     nc4h9coc2h4p    ic8h17coc2h4p   ic7h15coc2h4p
                     ic6h13coc2h4p   ic5h11coc2h4p   ic4h9coc2h4p
                     ic3h7coc2h4p    nc8h17coc2h3    nc7h15coc2h3
                     nc6h13coc2h3    nc5h11coc2h3    nc8h17coc3h6p
                     nc7h15coc3h6p   nc6h13coc3h6p   nc5h11coc3h6p
                     nc4h9coc3h6p    nc3h7coc3h6p    ic8h17coc3h6p
                     ic7h15coc3h6p   ic6h13coc3h6p   ic5h11coc3h6p
                     ic4h9coc3h6p    ic3h7coc3h6p    nc5h11chco
                     nc6h13chco      nc7h15chco      nc8h17chco
                     ic3h7chco       ch3chcho        ch3chocho
                     ic3h7coc2h3     ic3h6coc2h3     tc3h6coc2h3
                     c8h15           ac6h13          bc6h13
                     cc6h13          ac6h12          bc6h12
                     ec6h13          dc6h13          dc6h12
                     cc6h12          ic6h11          ac5h11
                     bc5h11          cc5h11          dc5h11
                     ac5h10          bc5h10          cc5h10
                     ic5h9           lc6h13          mc6h13
                     nc6h13          oc6h13          lc6h12
                     mc6h12          nc6h12          c7h16-2
                     c7h15-2a        c7h15-2b        c7h15-2c
                     c7h15-2d        c7h15-2e        c7h15-2f
                     c7h14-1-2       c7h14-2-2       c7h14-3-2
                     c7h14-4-2       c7h14-5-2       c7h13-1-2
                     c7h15o-1-2      c7h15o-2-2      c7h15o-3-2
                     c7h15o-4-2      c7h15o-5-2      c7h15o-6-2
                     c7h15oo-1-2     c7h15oo-2-2     c7h15oo-3-2
                     c7h15oo-4-2     c7h15oo-5-2     c7h15oo-6-2
                     c7h15ooh-1-2    c7h15ooh-2-2    c7h15ooh-3-2
                     c7h15ooh-4-2    c7h15ooh-5-2    c7h15ooh-6-2
                     c7ooh1-2a       c7ooh1-2b       c7ooh1-2c
                     c7ooh1-2d       c7ooh1-2e       c7ooh2-2a
                     c7ooh2-2c       c7ooh2-2d       c7ooh2-2e
                     c7ooh2-2f       c7ooh3-2a       c7ooh3-2b
                     c7ooh3-2d       c7ooh3-2e       c7ooh3-2f
                     c7ooh4-2a       c7ooh4-2b       c7ooh4-2c
                     c7ooh4-2e       c7ooh4-2f       c7ooh5-2a
                     c7ooh5-2b       c7ooh5-2c       c7ooh5-2d
                     c7ooh5-2f       c7ooh6-2b       c7ooh6-2c
                     c7ooh6-2d       c7ooh6-2e       c7ooh1-oo1-2
                     c7ooh1-oo2-2    c7ooh1-oo3-2    c7ooh1-oo4-2
                     c7ooh1-oo5-2    c7ooh2-oo1-2    c7ooh2-oo3-2
                     c7ooh2-oo4-2    c7ooh2-oo5-2    c7ooh2-oo6-2
                     c7ooh3-oo1-2    c7ooh3-oo2-2    c7ooh3-oo4-2
                     c7ooh3-oo5-2    c7ooh3-oo6-2    c7ooh4-oo1-2
                     c7ooh4-oo2-2    c7ooh4-oo3-2    c7ooh4-oo5-2
                     c7ooh4-oo6-2    c7ooh5-oo1-2    c7ooh5-oo2-2
                     c7ooh5-oo3-2    c7ooh5-oo4-2    c7ooh5-oo6-2
                     c7ooh6-oo2-2    c7ooh6-oo3-2    c7ooh6-oo4-2
                     c7ooh6-oo5-2    c7h14o1-1-2     c7h14o1-2-2
                     c7h14o1-3-2     c7h14o1-4-2     c7h14o1-5-2
                     c7h14o2-3-2     c7h14o2-4-2     c7h14o2-5-2
                     c7h14o2-6-2     c7h14o3-4-2     c7h14o3-5-2
                     c7h14o3-6-2     c7h14o4-5-2     c7h14o4-6-2
                     c7h14o5-6-2     c7ket1-1-2      c7ket1-2-2
                     c7ket1-3-2      c7ket1-4-2      c7ket1-5-2
                     c7ket3-1-2      c7ket3-2-2      c7ket3-4-2
                     c7ket3-5-2      c7ket3-6-2      c7ket4-1-2
                     c7ket4-2-2      c7ket4-3-2      c7ket4-5-2
                     c7ket4-6-2      c7ket5-1-2      c7ket5-2-2
                     c7ket5-3-2      c7ket5-4-2      c7ket5-6-2
                     c7ket6-2-2      c7ket6-3-2      c7ket6-4-2
                     c7ket6-5-2      c8h18-2         c8h17-2a
                     c8h17-2b        c8h17-2c        c8h17-2d
                     c8h17-2e        c8h17-2f        c8h17-2g
                     c8h16-1-2       c8h16-2-2       c8h16-3-2
                     c8h16-4-2       c8h16-5-2       c8h16-6-2
                     c8h15-1-2       c8h17o-1-2      c8h17o-2-2
                     c8h17o-3-2      c8h17o-4-2      c8h17o-5-2
                     c8h17o-6-2      c8h17o-7-2      c8h17oo-1-2
                     c8h17oo-2-2     c8h17oo-3-2     c8h17oo-4-2
                     c8h17oo-5-2     c8h17oo-6-2     c8h17oo-7-2
                     c8h17ooh-1-2    c8h17ooh-2-2    c8h17ooh-3-2
                     c8h17ooh-4-2    c8h17ooh-5-2    c8h17ooh-6-2
                     c8h17ooh-7-2    c8ooh1-2a       c8ooh1-2b
                     c8ooh1-2c       c8ooh1-2d       c8ooh1-2e
                     c8ooh2-2a       c8ooh2-2c       c8ooh2-2d
                     c8ooh2-2e       c8ooh2-2f       c8ooh3-2a
                     c8ooh3-2b       c8ooh3-2d       c8ooh3-2e
                     c8ooh3-2f       c8ooh3-2g       c8ooh4-2a
                     c8ooh4-2b       c8ooh4-2c       c8ooh4-2e
                     c8ooh4-2f       c8ooh4-2g       c8ooh5-2a
                     c8ooh5-2b       c8ooh5-2c       c8ooh5-2d
                     c8ooh5-2f       c8ooh5-2g       c8ooh6-2b
                     c8ooh6-2c       c8ooh6-2d       c8ooh6-2e
                     c8ooh6-2g       c8ooh7-2c       c8ooh7-2d
                     c8ooh7-2e       c8ooh7-2f       c8ooh1-oo1-2
                     c8ooh1-oo2-2    c8ooh1-oo3-2    c8ooh1-oo4-2
                     c8ooh1-oo5-2    c8ooh2-oo1-2    c8ooh2-oo3-2
                     c8ooh2-oo4-2    c8ooh2-oo5-2    c8ooh2-oo6-2
                     c8ooh3-oo1-2    c8ooh3-oo2-2    c8ooh3-oo4-2
                     c8ooh3-oo5-2    c8ooh3-oo6-2    c8ooh3-oo7-2
                     c8ooh4-oo1-2    c8ooh4-oo2-2    c8ooh4-oo3-2
                     c8ooh4-oo5-2    c8ooh4-oo6-2    c8ooh4-oo7-2
                     c8ooh5-oo1-2    c8ooh5-oo2-2    c8ooh5-oo3-2
                     c8ooh5-oo4-2    c8ooh5-oo6-2    c8ooh5-oo7-2
                     c8ooh6-oo2-2    c8ooh6-oo3-2    c8ooh6-oo4-2
                     c8ooh6-oo5-2    c8ooh6-oo7-2    c8ooh7-oo3-2
                     c8ooh7-oo4-2    c8ooh7-oo5-2    c8ooh7-oo6-2
                     c8h16o1-1-2     c8h16o1-2-2     c8h16o1-3-2
                     c8h16o1-4-2     c8h16o1-5-2     c8h16o2-3-2
                     c8h16o2-4-2     c8h16o2-5-2     c8h16o2-6-2
                     c8h16o3-4-2     c8h16o3-5-2     c8h16o3-6-2
                     c8h16o3-7-2     c8h16o4-5-2     c8h16o4-6-2
                     c8h16o4-7-2     c8h16o5-6-2     c8h16o5-7-2
                     c8h16o6-7-2     c8ket1-1-2      c8ket1-2-2
                     c8ket1-3-2      c8ket1-4-2      c8ket1-5-2
                     c8ket3-1-2      c8ket3-2-2      c8ket3-4-2
                     c8ket3-5-2      c8ket3-6-2      c8ket3-7-2
                     c8ket4-1-2      c8ket4-2-2      c8ket4-3-2
                     c8ket4-5-2      c8ket4-6-2      c8ket4-7-2
                     c8ket5-1-2      c8ket5-2-2      c8ket5-3-2
                     c8ket5-4-2      c8ket5-6-2      c8ket5-7-2
                     c8ket6-2-2      c8ket6-3-2      c8ket6-4-2
                     c8ket6-5-2      c8ket6-7-2      c8ket7-3-2
                     c8ket7-4-2      c8ket7-5-2      c8ket7-6-2
                     c7h16-3         c7h15-3z        c7h15-3a
                     c7h15-3b        c7h15-3c        c7h15-3d
                     c7h15-3e        c7h15-3f        c7h14-1-3
                     c7h14-2-3       c7h14-3-3       c7h14-4-3
                     c7h14-5-3       c7h14-z-3       c7h13-1-3
                     c8h18-3         c8h17-3z        c8h17-3a
                     c8h17-3b        c8h17-3c        c8h17-3d
                     c8h17-3e        c8h17-3f        c8h17-3g
                     c8h16-1-3       c8h16-2-3       c8h16-3-3
                     c8h16-4-3       c8h16-5-3       c8h16-6-3
                     c8h16-z-3       c8h15-1-3       c8h17o-1-3
                     c8h17o-2-3      c8h17o-3-3      c8h17o-4-3
                     c8h17o-5-3      c8h17o-6-3      c8h17o-7-3
                     c8h17o-z-3      c8h17oo-1-3     c8h17oo-2-3
                     c8h17oo-3-3     c8h17oo-4-3     c8h17oo-5-3
                     c8h17oo-6-3     c8h17oo-7-3     c8h17oo-z-3
                     c8h17ooh-1-3    c8h17ooh-2-3    c8h17ooh-3-3
                     c8h17ooh-4-3    c8h17ooh-5-3    c8h17ooh-6-3
                     c8h17ooh-7-3    c8h17ooh-z-3    c8ooh1-3z
                     c8ooh1-3b       c8ooh1-3c       c8ooh1-3d
                     c8ooh1-3e       c8ooh2-3a       c8ooh2-3c
                     c8ooh2-3d       c8ooh2-3e       c8ooh2-3f
                     c8ooh2-3z       c8ooh3-3a       c8ooh3-3b
                     c8ooh3-3d       c8ooh3-3e       c8ooh3-3f
                     c8ooh3-3g       c8ooh3-3z       c8ooh4-3a
                     c8ooh4-3b       c8ooh4-3c       c8ooh4-3e
                     c8ooh4-3f       c8ooh4-3g       c8ooh4-3z
                     c8ooh5-3a       c8ooh5-3b       c8ooh5-3c
                     c8ooh5-3d       c8ooh5-3f       c8ooh5-3g
                     c8ooh5-3z       c8ooh6-3b       c8ooh6-3c
                     c8ooh6-3d       c8ooh6-3e       c8ooh6-3g
                     c8ooh6-3z       c8ooh7-3c       c8ooh7-3d
                     c8ooh7-3e       c8ooh7-3f       c8oohz-3a
                     c8oohz-3b       c8oohz-3c       c8oohz-3d
                     c8oohz-3e       c8oohz-3f       c8ooh1-ooz-3
                     c8ooh1-oo2-3    c8ooh1-oo3-3    c8ooh1-oo4-3
                     c8ooh1-oo5-3    c8ooh2-oo1-3    c8ooh2-oo3-3
                     c8ooh2-oo4-3    c8ooh2-oo5-3    c8ooh2-oo6-3
                     c8ooh2-ooz-3    c8ooh3-oo1-3    c8ooh3-oo2-3
                     c8ooh3-oo4-3    c8ooh3-oo5-3    c8ooh3-oo6-3
                     c8ooh3-oo7-3    c8ooh3-ooz-3    c8ooh4-oo1-3
                     c8ooh4-oo2-3    c8ooh4-oo3-3    c8ooh4-oo5-3
                     c8ooh4-oo6-3    c8ooh4-oo7-3    c8ooh4-ooz-3
                     c8ooh5-oo1-3    c8ooh5-oo2-3    c8ooh5-oo3-3
                     c8ooh5-oo4-3    c8ooh5-oo6-3    c8ooh5-oo7-3
                     c8ooh5-ooz-3    c8ooh6-oo2-3    c8ooh6-oo3-3
                     c8ooh6-oo4-3    c8ooh6-oo5-3    c8ooh6-oo7-3
                     c8ooh6-ooz-3    c8ooh7-oo3-3    c8ooh7-oo4-3
                     c8ooh7-oo5-3    c8ooh7-oo6-3    c8oohz-oo1-3
                     c8oohz-oo2-3    c8oohz-oo3-3    c8oohz-oo4-3
                     c8oohz-oo5-3    c8oohz-oo6-3    c8h16o1-z-3
                     c8h16o1-2-3     c8h16o1-3-3     c8h16o1-4-3
                     c8h16o1-5-3     c8h16o2-3-3     c8h16o2-4-3
                     c8h16o2-5-3     c8h16o2-6-3     c8h16o2-z-3
                     c8h16o3-4-3     c8h16o3-5-3     c8h16o3-6-3
                     c8h16o3-7-3     c8h16o3-z-3     c8h16o4-5-3
                     c8h16o4-6-3     c8h16o4-7-3     c8h16o4-z-3
                     c8h16o5-6-3     c8h16o5-7-3     c8h16o5-z-3